/com, This is auto generated APDL file.
/prep7 !
et, 18, pipe18 ! Element 18 - PIPE18 (Pipe Bend Element)
et, 16, pipe16 ! Element 16 - PIPE16 (Straight Pipe Element)
et, 21, mass21 ! Element 21 - MASS21 (Mass Element)
keyopt, 21, 3, 0 ! MASSX, MASSY, MASSZ, IXX, IYY, IZZ
et, 31, combin14
keyopt, 31, 3, 0 !UX Degree of Freedom
!et, 32, combin14
!keyopt, 32, 2, 2 !UY
!et, 33, combin14
!keyopt, 33, 2, 3 !UZ
et, 34, combin14
keyopt, 34, 3, 1 !URX
!et, 35, combin14
!keyopt, 35, 2, 5 !URY
!et, 36, combin14
!keyopt, 36, 2, 6 !URZ

mp, dens, 1, 8.8e-09
mp, ex, 1, 117000
mp, nuxy, 1, 0.35
r, 1, 12, 1
n, 1, 0, 0, 0
n, 2, 1000, 0, 0
n, 3, 200, 0, 0
n, 4, 400, 0, 0
n, 5, 600, 0, 0
n, 6, 800, 0, 0
type, 16
mat, 1
real, 1
en, 1, 1, 3
type, 16
mat, 1
real, 1
en, 2, 3, 4
type, 16
mat, 1
real, 1
en, 3, 4, 5
type, 16
mat, 1
real, 1
en, 4, 5, 6
type, 16
mat, 1
real, 1
en, 5, 6, 2
d, 1, ux, 0
d, 1, uy, 0
d, 1, uz, 0
d, 1, rotx, 0
d, 1, roty, 0
d, 1, rotz, 0

/solution
antype, harmic
dmpstr,0.02
hropt,full
hrout, on
nsubst,1                 ! 30 intervals within freq. range
harfrq,,50
kbc,1
d, 2, ux, 0
d, 2, uy, 1
d, 2, uz, 0
solve
save
finish
/post26
numvar,99
nsol,2,1,u,y,1uy          ! store ux displacements
nsol,3,2,u,y,2uy
nsol,4,3,u,y,3uy         ! store ux displacements
nsol,5,4,u,y,4uy
nsol,6,5,u,y,5uy         ! store ux displacements
nsol,7,6,u,y,6uy

esol, 8,1,,nmisc, 5
esol, 9,1,,nmisc,10
esol,10,1,,nmisc,15
esol,11,1,,nmisc,20
esol,12,1,,nmisc,25
esol,13,1,,nmisc,30
esol,14,1,,nmisc,35
esol,15,1,,nmisc,40
esol,16,1,,nmisc,45
esol,17,1,,nmisc,50
esol,18,1,,nmisc,55
esol,19,1,,nmisc,60
esol,20,1,,nmisc,65
esol,21,1,,nmisc,70
esol,22,1,,nmisc,75
esol,23,1,,nmisc,80
/post1
set, 1, last
/output, one-beam-x
prnsol, u, comp
prnsol, rot, comp
/outptu, one-beam-stress
presol, nmisc, 5
presol, nmisc,10
presol, nmisc,15
presol, nmisc,20
presol, nmisc,25
presol, nmisc,30
presol, nmisc,35
presol, nmisc,40
